
[General]
include ../Parameters/Castalia.ini

sim-time-limit = 100s

SN.field_x = 200	# meters
SN.field_y = 200	# meters

SN.numNodes = 3

SN.wirelessChannel.onlyStaticNodes = false
SN.wirelessChannel.sigma = 0
SN.wirelessChannel.bidirectionalSigma = 0

SN.node[*].Communication.Radio.RadioParametersFile = "../Parameters/Radio/CC2420.txt"
SN.node[*].Communication.Radio.TxOutputPower = "-5dBm"

SN.node[*].Communication.Routing.maxNetFrameSize = 2500
SN.node[*].Communication.MAC.maxMACFrameSize = 2500
SN.node[*].Communication.Radio.maxPhyFrameSize = 2500

SN.node[*].ApplicationName = "ThroughputTest"
SN.node[*].Application.packet_rate = 5
SN.node[*].Application.constantDataPayload = 2000

SN.node[0].Application.collectTraceInfo = true

SN.node[*].MobilityManagerName = "BanMobilityManager"
SN.node[*].MobilityManager.collectTraceInfo = true
SN.node[*].MobilityManager.nodesSpecFile = xmldoc("../Parameters/MobilityManager/postures.xml")
SN.node[*].MobilityManager.updateInterval = 100


